power-flow-agent/results/ieee14/2026-09-21/gpt-5.6-sol/react_nogate__v1/traces/20_case14-multistep-038-s0.transcript.txt
==============================================================================
TRANSCRIPT  react_nogate  |  openrouter:openai/gpt-5.6-sol  |  case14  |  case14-multistep-038-s0  run 0
==============================================================================
date: 2026-09-21   seed: 0   difficulty: multistep   tool variant: v1

[system]   (hash 7da5e2a37ec4, from methods/react_nogate/method.json prompt_files)
You are a power system power-flow analysis assistant. You help the user complete power system analysis tasks from natural-language requests.

## What you can do
You complete tasks by calling tool functions:
1. Load an IEEE standard test system (14, 30, 57, 118, 300 buses)
2. Run AC power flow
3. Modify the load at a bus and re-solve
4. Disconnect or reconnect a line and re-solve
5. Query the network status
6. Run an N-1 contingency analysis (disconnect branches one at a time and rank the worst cases)
7. Generate remedial-action suggestions (what-if load shedding or voltage adjustment) to reduce violation risk

## Key rules
- Never fabricate any numerical result. Every voltage, power, loss, or loading value must come from a tool return value.
- If a tool reports an error or a non-converged power flow, say so explicitly and do not report numbers for that state.
- If the request is ambiguous, state the interpretation you are using.
- Bus and line identifiers in the request are MATPOWER 1-based ids; pass them to the tools as given, unless the request itself states a different indexing convention for that identifier (e.g. "(0-based)"), in which case convert it to the MATPOWER 1-based id before calling any tool.
- After a network modification, re-solve before reporting any value.
- Always reply in English.

## Reply format
After each analysis, reply in this structure:
1. One-sentence summary
2. Key numbers (total load, total generation, total losses, voltage range) taken from the tool outputs
3. Violations, if any
4. Suggested next step

[user]
Load the IEEE 14-bus system, set the active load at bus 6 to 7 MW, set the active load at bus 4 to 40.3 MW, and finally rerun the power flow, then report the bus with the lowest voltage magnitude.

[tools available to the model]   (function-calling schema, --tool-variant v1; enum values and defaults as sent)
  load_case(case_name: string* in {case14, case30, case57, case118, case300})  Load IEEE test case.
  run_powerflow()  Run power flow on current case.
  modify_load(bus_id: integer*, p_mw: number*, q_mvar: number)  Modify bus load and recompute.
  disconnect_line(from_bus: integer*, to_bus: integer*)  Disconnect line/branch between two buses and recompute.
  reconnect_line(from_bus: integer*, to_bus: integer*)  Reconnect line/branch between two buses and recompute.
  get_most_loaded_branch()  Get most loaded branch.
  run_n1_contingency(top_k: integer (default 5), criteria: string in {max_violations, max_overload, min_voltage} (default max_violations), max_candidates: integer (default 0))  Run N-1 contingency analysis.
  recommend_remedial_actions(max_actions: integer (default 5), allow_load_shed: boolean (default True), allow_voltage_control: boolean (default True), include_best_comparison: boolean (default True))  Recommend remedial actions.
  apply_remedial_action(action_index: integer*, confirmed: boolean (default False))  Apply one remedial action by index.
  get_status()  Get current network status.
  generate_plot(plot_type: string* in {voltage_heatmap, flow_diagram, violation_overview, comparison})  Generate one plot.

--- round 1 ---
[assistant]   (835 in / 64 out tokens, 7.3 s)
(no text)
tool_call  load_case(case_name="case14")
[tool load_case]   (gate: not applied)
{"case_name": "case14", "n_buses": 14, "n_generators": 5, "n_lines": 20, "n_loads": 11, "total_load_mw": 260.19519348172884, "total_gen_capacity_mw": 772.4000000000001}

--- round 2 ---
[assistant]   (936 in / 66 out tokens, 8.4 s)
(no text)
tool_call  get_status()
[tool get_status]   (gate: not applied)
{"active_case": "case14", "network_info": {"case_name": "case14", "n_buses": 14, "n_generators": 5, "n_lines": 20, "n_loads": 11, "total_load_mw": 260.19519348172884, "total_gen_capacity_mw": 772.4000000000001}, "has_last_result": false}

--- round 3 ---
[assistant]   (1050 in / 236 out tokens, 14.7 s)
(no text)
tool_call  modify_load(bus_id=6, p_mw=7, q_mvar=7.5)
[tool modify_load]   (gate: pass)
{"case_name": "case14", "converged": true, "bus_voltages": [{"bus_id": 1, "vm_pu": 1.06, "va_deg": 0.0, "is_violation": true, "violation_type": "overvoltage"}, {"bus_id": 2, "vm_pu": 1.045, "va_deg": -4.930473370516825, "is_violation": false, "violation_type": null}, {"bus_id": 3, "vm_pu": 1.0099999999999998, "va_deg": -12.845237471939479, "is_violation": false, "violation_type": null}, {"bus_id": 4, "vm_pu": 1.018132325998654, "va_deg": -10.207553236043875, "is_violation": false, "violation_type": null}, {"bus_id": 5, "vm_pu": 1.0202130754900094, "va_deg": -8.635020678627011, "is_violation": false, "violation_type": null}, {"bus_id": 6, "vm_pu": 1.07, "va_deg": -13.679871779524994, "is_violation": true, "violation_type": "overvoltage"}, {"bus_id": 7, "vm_pu": 1.0612920986580554, "va_deg": -13.165885099130309, "is_violation": true, "violation_type": "overvoltage"}, {"bus_id": 8, "vm_pu": 1.09, "va_deg": -13.165885099130307, "is_violation": true, "violation_type": "overvoltage"}, {"bus_id": 9, "vm_pu": 1.0551281980909435, "va_deg": -14.700864658226486, "is_violation": true, "violation_type": "overvoltage"}, {"bus_id": 10, "vm_pu": 1.0506244313388649, "va_deg": -14.792491093278947, "is_violation": true, "violation_type": "overvoltage"}, {"bus_id": 11, "vm_pu": 1.0563971840868984, "va_deg": -14.380685710979058, "is_violation": true, "violation_type": "overvoltage"}, {"bus_id": 12, "vm_pu": 1.055690356352402, "va_deg": -14.5267781751368, "is_violation": true, "violation_type": "overvoltage"}, {"bus_id": 13, "vm_pu": 1.0509268851105011, "va_deg": -14.62473662884952, "is_violation": true, "violation_type": "overvoltage"}, {"bus_id": 14, "vm_pu": 1.0356755887147113, "va_deg": -15.647262095425708, "is_violation": false, "violation_type": null}], "line_flows": [{"line_id": 0, "from_bus": 1, "to_bus": 2, "p_from_mw": 155.30728283814196, "q_from_mvar": -20.035354546620056, "loading_percent": 1.492226766010081, "is_violation": false}, {"line_id": 1, "from_bus": 1, "to_bus": 5, "p_from_mw": 74.34547715191701, "q_from_mvar": 3.6309677317561886, "loading_percent": 0.7098798217891643, "is_violation": false}, {"line_id": 2, "from_bus": 2, "to_bus": 3, "p_from_mw": 74.78982247357133, "q_from_mvar": 3.410084200560511, "loading_percent": 0.7240807912592723, "is_violation": false}, {"line_id": 3, "from_bus": 2, "to_bus": 4, "p_from_mw": 55.554523995149715, "q_from_mvar": -1.6843371899201247, "loading_percent": 0.5372389109291571, "is_violation": false}, {"line_id": 4, "from_bus": 2, "to_bus": 5, "p_from_mw": 40.56304901965399, "q_from_mvar": 1.0032225277660123, "loading_percent": 0.39359989373773835, "is_violation": false}, {"line_id": 5, "from_bus": 3, "to_bus": 4, "p_from_mw": -25.402010249511957, "q_from_mvar": 5.134259759519528, "loading_percent": 0.2618002321202983, "is_violation": false}, {"line_id": 6, "from_bus": 4, "to_bus": 5, "p_from_mw": -62.69081221446275, "q_from_mvar": 15.772830294816725, "loading_percent": 0.6413463289192529, "is_violation": false}, {"line_id": 7, "from_bus": 6, "to_bus": 11, "p_from_mw": 8.522332300088983, "q_from_mvar": 3.2906265089687636, "loading_percent": 0.08624143586177595, "is_violation": false}, {"line_id": 8, "from_bus": 6, "to_bus": 12, "p_from_mw": 7.6579363004756225, "q_from_mvar": 2.3542266364286593, "loading_percent": 0.07563145234712733, "is_violation": false}, {"line_id": 9, "from_bus": 6, "to_bus": 13, "p_from_mw": 17.68818089196564, "q_from_mvar": 6.801567786269014, "loading_percent": 0.1788993346200002, "is_violation": false}, {"line_id": 10, "from_bus": 9, "to_bus": 10, "p_from_mw": 3.692365871918034, "q_from_mvar": 4.235416805267791, "loading_percent": 0.05379139810940575, "is_violation": false}, {"line_id": 11, "from_bus": 9, "to_bus": 14, "p_from_mw": 8.411219750677187, "q_from_mvar": 3.6920502598480924, "loading_percent": 0.08793848058274323, "is_violation": false}, {"line_id": 12, "from_bus": 10, "to_bus": 11, "p_from_mw": -4.647598333528364, "q_from_mvar": -1.1573768317208961, "loading_percent": 0.04604803425023882, "is_violation": false}, {"line_id": 13, "from_bus": 12, "to_bus": 13, "p_from_mw": 1.6792330291226891, "q_from_mvar": 0.660701694548356, "loading_percent": 0.017266082416830128, "is_violation": false}, {"line_id": 14, "from_bus": 13, "to_bus": 14, "p_from_mw": 6.338521045443116, "q_from_mvar": 1.5421202805338996, "loading_percent": 0.06269999681591361, "is_violation": false}, {"line_id": 100000, "from_bus": 4, "to_bus": 7, "p_from_mw": 27.266915218732862, "q_from_mvar": -9.380193317912651, "loading_percent": 0.2860780744571044, "is_violation": false}, {"line_id": 100001, "from_bus": 4, "to_bus": 9, "p_from_mw": 15.61596915959994, "q_from_mvar": -0.22312531194893578, "loading_percent": 0.15494367359210526, "is_violation": false}, {"line_id": 100002, "from_bus": 5, "to_bus": 6, "p_from_mw": 40.86844949167353, "q_from_mvar": 12.506775003626558, "loading_percent": 0.42315701150380586, "is_violation": false}, {"line_id": 100003, "from_bus": 7, "to_bus": 8, "p_from_mw": -1.451261552850432e-14, "q_from_mvar": -17.296320671734815, "loading_percent": 0.16462038117160643, "is_violation": false}, {"line_id": 100004, "from_bus": 7, "to_bus": 9, "p_from_mw": 27.266915218420735, "q_from_mvar": 6.3117267496148335, "loading_percent": 0.26637912732242963, "is_violation": false}], "total_generation_mw": 270.1005672812367, "total_load_mw": 256.76189585011025, "total_loss_mw": 13.338671435955353, "voltage_violations": [{"bus_id": 1, "vm_pu": 1.06, "va_deg": 0.0, "is_violation": true, "violation_type": "overvoltage"}, {"bus_id": 6, "vm_pu": 1.07, "va_deg": -13.679871779524994, "is_violation": true, "violation_type": "overvoltage"}, {"bus_id": 7, "vm_pu": 1.0612920986580554, "va_deg": -13.165885099130309, "is_violation": true, "violation_type": "overvoltage"}, {"bus_id": 8, "vm_pu": 1.09, "va_deg": -13.165885099130307, "is_violation": true, "violation_type": "overvoltage"}, {"bus_id": 9, "vm_pu": 1.0551281980909435, "va_deg": -14.700864658226486, "is_violation": true, "violation_type": "overvoltage"}, {"bus_id": 10, "vm_pu": 1.0506244313388649, "va_deg": -14.792491093278947, "is_violation": true, "violation_type": "overvoltage"}, {"bus_id": 11, "vm_pu": 1.0563971840868984, "va_deg": -14.380685710979058, "is_violation": true, "violation_type": "overvoltage"}, {"bus_id": 12, "vm_pu": 1.055690356352402, "va_deg": -14.5267781751368, "is_violation": true, "violation_type": "overvoltage"}, {"bus_id": 13, "vm_pu": 1.0509268851105011, "va_deg": -14.62473662884952, "is_violation": true, "violation_type": "overvoltage"}], "thermal_violations": [], "summary_text": "", "solver_backend": "pandapower", "llm_prompt": null, "llm_response": null}

--- round 4 ---
[assistant]   (3802 in / 140 out tokens, 7.5 s)
(no text)
tool_call  modify_load(bus_id=4, p_mw=40.3, q_mvar=-3.9)
[tool modify_load]   (gate: pass)
{"case_name": "case14", "converged": true, "bus_voltages": [{"bus_id": 1, "vm_pu": 1.06, "va_deg": 0.0, "is_violation": true, "violation_type": "overvoltage"}, {"bus_id": 2, "vm_pu": 1.045, "va_deg": -4.7442649174717815, "is_violation": false, "violation_type": null}, {"bus_id": 3, "vm_pu": 1.01, "va_deg": -12.519692431701886, "is_violation": false, "violation_type": null}, {"bus_id": 4, "vm_pu": 1.0193807249279874, "va_deg": -9.781620151673621, "is_violation": false, "violation_type": null}, {"bus_id": 5, "vm_pu": 1.0211281815181348, "va_deg": -8.302548754142228, "is_violation": false, "violation_type": null}, {"bus_id": 6, "vm_pu": 1.0700000000000003, "va_deg": -13.308277186798499, "is_violation": true, "violation_type": "overvoltage"}, {"bus_id": 7, "vm_pu": 1.06189503165455, "va_deg": -12.753241254154037, "is_violation": true, "violation_type": "overvoltage"}, {"bus_id": 8, "vm_pu": 1.09, "va_deg": -12.753241254154037, "is_violation": true, "violation_type": "overvoltage"}, {"bus_id": 9, "vm_pu": 1.055764936206467, "va_deg": -14.296071414446477, "is_violation": true, "violation_type": "overvoltage"}, {"bus_id": 10, "vm_pu": 1.0511609440157927, "va_deg": -14.39365252157809, "is_violation": true, "violation_type": "overvoltage"}, {"bus_id": 11, "vm_pu": 1.0566811907629994, "va_deg": -13.995592822769805, "is_violation": true, "violation_type": "overvoltage"}, {"bus_id": 12, "vm_pu": 1.0557325041276058, "va_deg": -14.152425386261086, "is_violation": true, "violation_type": "overvoltage"}, {"bus_id": 13, "vm_pu": 1.0510290188494547, "va_deg": -14.248557615553683, "is_violation": true, "violation_type": "overvoltage"}, {"bus_id": 14, "vm_pu": 1.036089166132653, "va_deg": -15.25425342049724, "is_violation": false, "violation_type": null}], "line_flows": [{"line_id": 0, "from_bus": 1, "to_bus": 2, "p_from_mw": 149.68042879558664, "q_from_mvar": -18.705445735424938, "loading_percent": 1.4374376132774724, "is_violation": false}, {"line_id": 1, "from_bus": 1, "to_bus": 5, "p_from_mw": 71.58295210419391, "q_from_mvar": 3.455479948943431, "loading_percent": 0.6836946165749735, "is_violation": false}, {"line_id": 2, "from_bus": 2, "to_bus": 3, "p_from_mw": 73.53416991926258, "q_from_mvar": 3.5311553634627457, "loading_percent": 0.7121996286639222, "is_violation": false}, {"line_id": 3, "from_bus": 2, "to_bus": 4, "p_from_mw": 53.058436666560816, "q_from_mvar": -1.8256745047866272, "loading_percent": 0.513168401375561, "is_violation": false}, {"line_id": 4, "from_bus": 2, "to_bus": 5, "p_from_mw": 38.991459404670124, "q_from_mvar": 0.8699119934640289, "loading_percent": 0.37840868264303984, "is_violation": false}, {"line_id": 5, "from_bus": 3, "to_bus": 4, "p_from_mw": -26.57813279142931, "q_from_mvar": 4.908081714934888, "loading_percent": 0.27268133398595473, "is_violation": false}, {"line_id": 6, "from_bus": 4, "to_bus": 5, "p_from_mw": -58.95855253617622, "q_from_mvar": 15.28486432195514, "loading_percent": 0.6035315902235333, "is_violation": false}, {"line_id": 7, "from_bus": 6, "to_bus": 11, "p_from_mw": 8.354771309993708, "q_from_mvar": 3.2162466068839755, "loading_percent": 0.08451293061816215, "is_violation": false}, {"line_id": 8, "from_bus": 6, "to_bus": 12, "p_from_mw": 7.633875425947469, "q_from_mvar": 2.347845946408251, "loading_percent": 0.07539664133976505, "is_violation": false}, {"line_id": 9, "from_bus": 6, "to_bus": 13, "p_from_mw": 17.6000535492657, "q_from_mvar": 6.761303530091073, "loading_percent": 0.17798641201371904, "is_violation": false}, {"line_id": 10, "from_bus": 9, "to_bus": 10, "p_from_mw": 3.856448979476421, "q_from_mvar": 4.302493026023653, "loading_percent": 0.05527954346786561, "is_violation": false}, {"line_id": 11, "from_bus": 9, "to_bus": 14, "p_from_mw": 8.520711454886879, "q_from_mvar": 3.733734298446737, "loading_percent": 0.08900497562306166, "is_violation": false}, {"line_id": 12, "from_bus": 10, "to_bus": 11, "p_from_mw": -4.484021270205115, "q_from_mvar": -1.0916448655207143, "loading_percent": 0.044347217880738476, "is_violation": false}, {"line_id": 13, "from_bus": 12, "to_bus": 13, "p_from_mw": 1.6555993571085863, "q_from_mvar": 0.6552101321443478, "loading_percent": 0.01703576916930597, "is_violation": false}, {"line_id": 14, "from_bus": 13, "to_bus": 14, "p_from_mw": 6.229043426086839, "q_from_mvar": 1.5006790810279518, "loading_percent": 0.06157758497747397, "is_violation": false}, {"line_id": 100000, "from_bus": 4, "to_bus": 7, "p_from_mw": 27.438455485972362, "q_from_mvar": -9.049229507690765, "loading_percent": 0.2862915470017779, "is_violation": false}, {"line_id": 100001, "from_bus": 4, "to_bus": 9, "p_from_mw": 15.718003704122175, "q_from_mvar": -0.09399554808322134, "loading_percent": 0.15575196703988087, "is_violation": false}, {"line_id": 100002, "from_bus": 5, "to_bus": 6, "p_from_mw": 40.58870028449966, "q_from_mvar": 12.917029893583889, "loading_percent": 0.4213453119576758, "is_violation": false}, {"line_id": 100003, "from_bus": 7, "to_bus": 8, "p_from_mw": -1.2918378106912181e-14, "q_from_mvar": -16.942677406098312, "loading_percent": 0.16116296857562515, "is_violation": false}, {"line_id": 100004, "from_bus": 7, "to_bus": 9, "p_from_mw": 27.43845548568785, "q_from_mvar": 6.2866519811898725, "loading_percent": 0.26776446280454363, "is_violation": false}], "total_generation_mw": 261.71118819095824, "total_load_mw": 249.1896580022036, "total_loss_mw": 12.521530192627885, "voltage_violations": [{"bus_id": 1, "vm_pu": 1.06, "va_deg": 0.0, "is_violation": true, "violation_type": "overvoltage"}, {"bus_id": 6, "vm_pu": 1.0700000000000003, "va_deg": -13.308277186798499, "is_violation": true, "violation_type": "overvoltage"}, {"bus_id": 7, "vm_pu": 1.06189503165455, "va_deg": -12.753241254154037, "is_violation": true, "violation_type": "overvoltage"}, {"bus_id": 8, "vm_pu": 1.09, "va_deg": -12.753241254154037, "is_violation": true, "violation_type": "overvoltage"}, {"bus_id": 9, "vm_pu": 1.055764936206467, "va_deg": -14.296071414446477, "is_violation": true, "violation_type": "overvoltage"}, {"bus_id": 10, "vm_pu": 1.0511609440157927, "va_deg": -14.39365252157809, "is_violation": true, "violation_type": "overvoltage"}, {"bus_id": 11, "vm_pu": 1.0566811907629994, "va_deg": -13.995592822769805, "is_violation": true, "violation_type": "overvoltage"}, {"bus_id": 12, "vm_pu": 1.0557325041276058, "va_deg": -14.152425386261086, "is_violation": true, "violation_type": "overvoltage"}, {"bus_id": 13, "vm_pu": 1.0510290188494547, "va_deg": -14.248557615553683, "is_violation": true, "violation_type": "overvoltage"}], "thermal_violations": [], "summary_text": "", "solver_backend": "pandapower", "llm_prompt": null, "llm_response": null}

--- round 5 ---
[assistant]   (6560 in / 156 out tokens, 12.5 s)
(no text)
tool_call  run_powerflow()
[tool run_powerflow]   (gate: pass)
{"case_name": "case14", "converged": true, "bus_voltages": [{"bus_id": 1, "vm_pu": 1.06, "va_deg": 0.0, "is_violation": true, "violation_type": "overvoltage"}, {"bus_id": 2, "vm_pu": 1.045, "va_deg": -4.7442649174717815, "is_violation": false, "violation_type": null}, {"bus_id": 3, "vm_pu": 1.01, "va_deg": -12.519692431701886, "is_violation": false, "violation_type": null}, {"bus_id": 4, "vm_pu": 1.0193807249279874, "va_deg": -9.781620151673621, "is_violation": false, "violation_type": null}, {"bus_id": 5, "vm_pu": 1.0211281815181348, "va_deg": -8.302548754142228, "is_violation": false, "violation_type": null}, {"bus_id": 6, "vm_pu": 1.0700000000000003, "va_deg": -13.308277186798499, "is_violation": true, "violation_type": "overvoltage"}, {"bus_id": 7, "vm_pu": 1.06189503165455, "va_deg": -12.753241254154037, "is_violation": true, "violation_type": "overvoltage"}, {"bus_id": 8, "vm_pu": 1.09, "va_deg": -12.753241254154037, "is_violation": true, "violation_type": "overvoltage"}, {"bus_id": 9, "vm_pu": 1.055764936206467, "va_deg": -14.296071414446477, "is_violation": true, "violation_type": "overvoltage"}, {"bus_id": 10, "vm_pu": 1.0511609440157927, "va_deg": -14.39365252157809, "is_violation": true, "violation_type": "overvoltage"}, {"bus_id": 11, "vm_pu": 1.0566811907629994, "va_deg": -13.995592822769805, "is_violation": true, "violation_type": "overvoltage"}, {"bus_id": 12, "vm_pu": 1.0557325041276058, "va_deg": -14.152425386261086, "is_violation": true, "violation_type": "overvoltage"}, {"bus_id": 13, "vm_pu": 1.0510290188494547, "va_deg": -14.248557615553683, "is_violation": true, "violation_type": "overvoltage"}, {"bus_id": 14, "vm_pu": 1.036089166132653, "va_deg": -15.25425342049724, "is_violation": false, "violation_type": null}], "line_flows": [{"line_id": 0, "from_bus": 1, "to_bus": 2, "p_from_mw": 149.68042879558664, "q_from_mvar": -18.705445735424938, "loading_percent": 1.4374376132774724, "is_violation": false}, {"line_id": 1, "from_bus": 1, "to_bus": 5, "p_from_mw": 71.58295210419391, "q_from_mvar": 3.455479948943431, "loading_percent": 0.6836946165749735, "is_violation": false}, {"line_id": 2, "from_bus": 2, "to_bus": 3, "p_from_mw": 73.53416991926258, "q_from_mvar": 3.5311553634627457, "loading_percent": 0.7121996286639222, "is_violation": false}, {"line_id": 3, "from_bus": 2, "to_bus": 4, "p_from_mw": 53.058436666560816, "q_from_mvar": -1.8256745047866272, "loading_percent": 0.513168401375561, "is_violation": false}, {"line_id": 4, "from_bus": 2, "to_bus": 5, "p_from_mw": 38.991459404670124, "q_from_mvar": 0.8699119934640289, "loading_percent": 0.37840868264303984, "is_violation": false}, {"line_id": 5, "from_bus": 3, "to_bus": 4, "p_from_mw": -26.57813279142931, "q_from_mvar": 4.908081714934888, "loading_percent": 0.27268133398595473, "is_violation": false}, {"line_id": 6, "from_bus": 4, "to_bus": 5, "p_from_mw": -58.95855253617622, "q_from_mvar": 15.28486432195514, "loading_percent": 0.6035315902235333, "is_violation": false}, {"line_id": 7, "from_bus": 6, "to_bus": 11, "p_from_mw": 8.354771309993708, "q_from_mvar": 3.2162466068839755, "loading_percent": 0.08451293061816215, "is_violation": false}, {"line_id": 8, "from_bus": 6, "to_bus": 12, "p_from_mw": 7.633875425947469, "q_from_mvar": 2.347845946408251, "loading_percent": 0.07539664133976505, "is_violation": false}, {"line_id": 9, "from_bus": 6, "to_bus": 13, "p_from_mw": 17.6000535492657, "q_from_mvar": 6.761303530091073, "loading_percent": 0.17798641201371904, "is_violation": false}, {"line_id": 10, "from_bus": 9, "to_bus": 10, "p_from_mw": 3.856448979476421, "q_from_mvar": 4.302493026023653, "loading_percent": 0.05527954346786561, "is_violation": false}, {"line_id": 11, "from_bus": 9, "to_bus": 14, "p_from_mw": 8.520711454886879, "q_from_mvar": 3.733734298446737, "loading_percent": 0.08900497562306166, "is_violation": false}, {"line_id": 12, "from_bus": 10, "to_bus": 11, "p_from_mw": -4.484021270205115, "q_from_mvar": -1.0916448655207143, "loading_percent": 0.044347217880738476, "is_violation": false}, {"line_id": 13, "from_bus": 12, "to_bus": 13, "p_from_mw": 1.6555993571085863, "q_from_mvar": 0.6552101321443478, "loading_percent": 0.01703576916930597, "is_violation": false}, {"line_id": 14, "from_bus": 13, "to_bus": 14, "p_from_mw": 6.229043426086839, "q_from_mvar": 1.5006790810279518, "loading_percent": 0.06157758497747397, "is_violation": false}, {"line_id": 100000, "from_bus": 4, "to_bus": 7, "p_from_mw": 27.438455485972362, "q_from_mvar": -9.049229507690765, "loading_percent": 0.2862915470017779, "is_violation": false}, {"line_id": 100001, "from_bus": 4, "to_bus": 9, "p_from_mw": 15.718003704122175, "q_from_mvar": -0.09399554808322134, "loading_percent": 0.15575196703988087, "is_violation": false}, {"line_id": 100002, "from_bus": 5, "to_bus": 6, "p_from_mw": 40.58870028449966, "q_from_mvar": 12.917029893583889, "loading_percent": 0.4213453119576758, "is_violation": false}, {"line_id": 100003, "from_bus": 7, "to_bus": 8, "p_from_mw": -1.2918378106912181e-14, "q_from_mvar": -16.942677406098312, "loading_percent": 0.16116296857562515, "is_violation": false}, {"line_id": 100004, "from_bus": 7, "to_bus": 9, "p_from_mw": 27.43845548568785, "q_from_mvar": 6.2866519811898725, "loading_percent": 0.26776446280454363, "is_violation": false}], "total_generation_mw": 261.71118819095824, "total_load_mw": 249.1896580022036, "total_loss_mw": 12.521530192627885, "voltage_violations": [{"bus_id": 1, "vm_pu": 1.06, "va_deg": 0.0, "is_violation": true, "violation_type": "overvoltage"}, {"bus_id": 6, "vm_pu": 1.0700000000000003, "va_deg": -13.308277186798499, "is_violation": true, "violation_type": "overvoltage"}, {"bus_id": 7, "vm_pu": 1.06189503165455, "va_deg": -12.753241254154037, "is_violation": true, "violation_type": "overvoltage"}, {"bus_id": 8, "vm_pu": 1.09, "va_deg": -12.753241254154037, "is_violation": true, "violation_type": "overvoltage"}, {"bus_id": 9, "vm_pu": 1.055764936206467, "va_deg": -14.296071414446477, "is_violation": true, "violation_type": "overvoltage"}, {"bus_id": 10, "vm_pu": 1.0511609440157927, "va_deg": -14.39365252157809, "is_violation": true, "violation_type": "overvoltage"}, {"bus_id": 11, "vm_pu": 1.0566811907629994, "va_deg": -13.995592822769805, "is_violation": true, "violation_type": "overvoltage"}, {"bus_id": 12, "vm_pu": 1.0557325041276058, "va_deg": -14.152425386261086, "is_violation": true, "violation_type": "overvoltage"}, {"bus_id": 13, "vm_pu": 1.0510290188494547, "va_deg": -14.248557615553683, "is_violation": true, "violation_type": "overvoltage"}], "thermal_violations": [], "summary_text": "", "solver_backend": "pandapower", "llm_prompt": null, "llm_response": null}

--- round 6 ---
[assistant]   (9298 in / 243 out tokens, 8.7 s)
1. **Summary:** The modified IEEE 14-bus AC power flow converged; **bus 3 has the lowest voltage magnitude at 1.0100 p.u.**

2. **Key numbers**
   - Total load: **249.190 MW**
   - Total generation: **261.711 MW**
   - Total active-power losses: **12.522 MW**
   - Voltage range: **1.0100–1.0900 p.u.**
   - Reactive loads were retained at their original values when changing active loads.

3. **Violations**
   - Overvoltage violations at buses **1, 6, 7, 8, 9, 10, 11, 12, and 13**
   - No thermal violations

4. **Suggested next step:** Review generator voltage setpoints or other voltage-control measures to address the overvoltages.

[final answer]
1. **Summary:** The modified IEEE 14-bus AC power flow converged; **bus 3 has the lowest voltage magnitude at 1.0100 p.u.**

2. **Key numbers**
   - Total load: **249.190 MW**
   - Total generation: **261.711 MW**
   - Total active-power losses: **12.522 MW**
   - Voltage range: **1.0100–1.0900 p.u.**
   - Reactive loads were retained at their original values when changing active loads.

3. **Violations**
   - Overvoltage violations at buses **1, 6, 7, 8, 9, 10, 11, 12, and 13**
   - No thermal violations

4. **Suggested next step:** Review generator voltage setpoints or other voltage-control measures to address the overvoltages.
